   26
C26 / DATE:21/ 7/2015 / Origin: Program Fullerene / D3h-C26 aug-cc-pvdz B3LYP opt. geom. minimum to C1-sym E=-990.1561223 au
 C           -0.02598598        2.09583518        0.72772990
 C           -0.05174337       -1.67855137        1.45002529
 C            0.07772962       -0.41728303       -2.17775367
 C            0.02597100        2.09573362       -0.72802285
 C           -0.07772664       -0.41697918        2.17781198
 C            0.05175537       -1.67875367       -1.44979065
 C            1.23250255       -1.77370263        0.77221301
 C            1.32621736        0.25660391       -1.85383156
 C            1.21663006        1.51712122        1.21636674
 C           -1.28439777       -1.77371735        0.68238240
 C           -1.19068220        0.25658703       -1.94366351
 C           -1.30027026        1.51710690        1.12653401
 C           -1.23248987       -1.77381936       -0.77196507
 C           -1.21664090        1.51694249       -1.21657879
 C           -1.32621920        0.25685356        1.85379568
 C            1.28441045       -1.77380353       -0.68213447
 C            1.30025941        1.51695872       -1.12674606
 C            1.19068036        0.25686722        1.94362763
 C            2.10402382        1.35863356        0.07500146
 C            2.06206293       -0.67921585        1.25099326
 C            2.14599873       -0.67937913       -1.10070745
 C           -2.10403353        1.35860803       -0.07519136
 C           -2.14599387       -0.67924061        1.10080241
 C           -2.06205807       -0.67940544       -1.25089831
 C            2.62320568        0.00001578        0.09362602
 C           -2.62320568       -0.00001605       -0.09362602
